<?xml version="1.0" encoding="UTF-8"?>

<!-- generated on 2025-03-14 09:11:41 by Eclipse SUMO netedit Version 1.22.0
<neteditConfiguration xmlns:xsi="http://www.w3.org/2001/XMLSchema-instance" xsi:noNamespaceSchemaLocation="http://sumo.dlr.de/xsd/neteditConfiguration.xsd">

    <input>
        <sumo-net-file value="/home/pedro/sumo_test/map.net.xml"/>
    </input>

    <output>
        <output-file value="/home/pedro/sumo_test/map.net.xml"/>
    </output>

    <processing>
        <geometry.min-radius.fix.railways value="false"/>
        <geometry.max-grade.fix value="false"/>
        <offset.disable-normalization value="true"/>
        <lefthand value="0"/>
    </processing>

    <junctions>
        <no-turnarounds value="true"/>
        <junctions.corner-detail value="5"/>
        <junctions.limit-turn-speed value="5.50"/>
        <rectangular-lane-cut value="0"/>
    </junctions>

    <pedestrian>
        <walkingareas value="0"/>
    </pedestrian>

</neteditConfiguration>
-->

<net version="1.20" junctionCornerDetail="5" limitTurnSpeed="5.50" xmlns:xsi="http://www.w3.org/2001/XMLSchema-instance" xsi:noNamespaceSchemaLocation="http://sumo.dlr.de/xsd/net_file.xsd">

    <location netOffset="-557858.69,-4588041.44" convBoundary="0.00,0.00,2114.62,1353.85" origBoundary="-8.307370,41.441832,-8.281966,41.453994" projParameter="+proj=utm +zone=29 +ellps=WGS84 +datum=WGS84 +units=m +no_defs"/>

    <type id="highway.footway" priority="1" numLanes="1" speed="2.78" allow="pedestrian" oneway="1" width="2.00"/>
    <type id="highway.path" priority="1" numLanes="1" speed="5.56" allow="pedestrian bicycle" oneway="0" width="2.00"/>
    <type id="highway.pedestrian" priority="1" numLanes="1" speed="2.78" allow="pedestrian" oneway="1" width="2.00"/>
    <type id="highway.primary" priority="12" numLanes="2" speed="27.78" disallow="tram rail_urban rail rail_electric rail_fast ship container cable_car subway aircraft wheelchair scooter drone" oneway="0"/>
    <type id="highway.residential" priority="3" numLanes="1" speed="13.89" disallow="tram rail_urban rail rail_electric rail_fast ship container cable_car subway aircraft wheelchair scooter drone" oneway="0"/>
    <type id="highway.service" priority="1" numLanes="1" speed="5.56" allow="pedestrian delivery bicycle" oneway="0"/>
    <type id="highway.steps" priority="1" numLanes="1" speed="1.39" allow="pedestrian" oneway="1" width="2.00"/>
    <type id="highway.tertiary" priority="10" numLanes="1" speed="22.22" disallow="tram rail_urban rail rail_electric rail_fast ship container cable_car subway aircraft wheelchair scooter drone" oneway="0"/>
    <type id="highway.tertiary_link" priority="5" numLanes="1" speed="22.22" disallow="tram rail_urban rail rail_electric rail_fast ship container cable_car subway aircraft wheelchair scooter drone" oneway="0"/>
    <type id="highway.trunk" priority="13" numLanes="2" speed="27.78" disallow="pedestrian bicycle tram rail_urban rail rail_electric rail_fast ship container cable_car subway aircraft wheelchair scooter drone" oneway="0"/>
    <type id="highway.unclassified" priority="4" numLanes="1" speed="13.89" disallow="tram rail_urban rail rail_electric rail_fast ship container cable_car subway aircraft wheelchair scooter drone" oneway="0"/>

    <edge id=":10156694604_0" function="internal">
        <lane id=":10156694604_0_0" index="0" disallow="tram rail_urban rail rail_electric rail_fast ship container cable_car subway aircraft wheelchair scooter drone" speed="13.89" length="0.25" shape="633.42,276.50 633.71,276.43"/>
        <lane id=":10156694604_0_1" index="1" disallow="tram rail_urban rail rail_electric rail_fast ship container cable_car subway aircraft wheelchair scooter drone" speed="13.89" length="0.25" shape="634.18,279.60 634.37,279.56"/>
    </edge>
    <edge id=":10156694605_0" function="internal">
        <lane id=":10156694605_0_0" index="0" disallow="tram rail_urban rail rail_electric rail_fast ship container cable_car subway aircraft wheelchair scooter drone" speed="13.89" length="0.30" shape="635.96,287.53 635.66,287.60"/>
        <lane id=":10156694605_0_1" index="1" disallow="tram rail_urban rail rail_electric rail_fast ship container cable_car subway aircraft wheelchair scooter drone" speed="13.89" length="0.30" shape="635.21,284.42 634.93,284.49"/>
    </edge>
    <edge id=":10217234859_0" function="internal">
        <lane id=":10217234859_0_0" index="0" disallow="tram rail_urban rail rail_electric rail_fast ship container cable_car subway aircraft wheelchair scooter drone" speed="13.89" length="0.10" shape="813.31,316.09 813.36,316.00"/>
        <lane id=":10217234859_0_1" index="1" disallow="tram rail_urban rail rail_electric rail_fast ship container cable_car subway aircraft wheelchair scooter drone" speed="13.89" length="0.10" shape="810.51,314.55 810.46,314.64"/>
    </edge>
    <edge id=":10217234860_0" function="internal">
        <lane id=":10217234860_0_0" index="0" disallow="tram rail_urban rail rail_electric rail_fast ship container cable_car subway aircraft wheelchair scooter drone" speed="13.89" length="0.30" shape="856.67,235.99 856.55,236.27"/>
    </edge>
    <edge id=":10248577160_0" function="internal">
        <lane id=":10248577160_0_0" index="0" disallow="tram rail_urban rail rail_electric rail_fast ship container cable_car subway aircraft wheelchair scooter drone" speed="27.78" length="4.91" shape="1346.07,288.39 1344.88,283.63"/>
    </edge>
    <edge id=":10248577160_1" function="internal">
        <lane id=":10248577160_1_0" index="0" disallow="tram rail_urban rail rail_electric rail_fast ship container cable_car subway aircraft wheelchair scooter drone" speed="6.05" length="4.49" shape="1346.07,288.39 1345.82,286.97 1345.82,285.78 1346.06,284.82 1346.55,284.10"/>
    </edge>
    <edge id=":1107639253_0" function="internal">
        <lane id=":1107639253_0_0" index="0" allow="delivery" speed="12.50" length="25.82" shape="587.11,1087.95 604.14,1107.35"/>
    </edge>
    <edge id=":1107639253_1" function="internal">
        <lane id=":1107639253_1_0" index="0" disallow="pedestrian bicycle tram rail_urban rail rail_electric rail_fast ship container cable_car subway aircraft wheelchair scooter drone" speed="19.44" length="25.68" shape="584.57,1090.36 589.95,1094.66 594.83,1098.39 599.46,1102.36 604.14,1107.35"/>
        <lane id=":1107639253_1_1" index="1" disallow="pedestrian bicycle tram rail_urban rail rail_electric rail_fast ship container cable_car subway aircraft wheelchair scooter drone" speed="19.44" length="25.68" shape="582.51,1092.81 587.83,1097.04 592.56,1100.64 597.06,1104.46 601.68,1109.39"/>
    </edge>
    <edge id=":1108139577_0" function="internal">
        <lane id=":1108139577_0_0" index="0" disallow="tram rail_urban rail rail_electric rail_fast ship container cable_car subway aircraft wheelchair scooter drone" speed="20.84" length="8.79" shape="853.43,198.66 855.71,199.73 857.24,200.55 858.82,201.21 861.24,201.81"/>
        <lane id=":1108139577_0_1" index="1" disallow="tram rail_urban rail rail_electric rail_fast ship container cable_car subway aircraft wheelchair scooter drone" speed="20.84" length="8.79" shape="852.19,201.61 854.64,202.76 856.31,203.62 858.02,204.31 860.64,204.95"/>
    </edge>
    <edge id=":1108139577_2" function="internal">
        <lane id=":1108139577_2_0" index="0" disallow="tram rail_urban rail rail_electric rail_fast ship container cable_car subway aircraft wheelchair scooter drone" speed="16.31" length="8.11" shape="852.64,205.05 854.98,204.52 856.62,204.35 858.28,204.51 860.64,204.95"/>
    </edge>
    <edge id=":1108139588_0" function="internal">
        <lane id=":1108139588_0_0" index="0" disallow="tram rail_urban rail rail_electric rail_fast ship container cable_car subway aircraft wheelchair scooter drone" speed="27.78" length="0.86" shape="807.65,305.31 807.71,305.19 807.75,305.11 807.77,305.03 807.80,304.90"/>
        <lane id=":1108139588_0_1" index="1" disallow="tram rail_urban rail rail_electric rail_fast ship container cable_car subway aircraft wheelchair scooter drone" speed="27.78" length="0.86" shape="810.48,306.80 810.66,306.46 810.77,306.22 810.84,305.96 810.93,305.59"/>
    </edge>
    <edge id=":1108139591_0" function="internal">
        <lane id=":1108139591_0_0" index="0" disallow="tram rail_urban rail rail_electric rail_fast ship container cable_car subway aircraft wheelchair scooter drone" speed="13.89" length="12.33" shape="809.79,275.75 810.31,272.23 809.98,269.76 809.00,267.35 807.53,263.98"/>
        <lane id=":1108139591_0_1" index="1" disallow="tram rail_urban rail rail_electric rail_fast ship container cable_car subway aircraft wheelchair scooter drone" speed="13.89" length="12.83" shape="809.79,275.75 810.84,272.06 811.63,269.43 811.72,266.86 810.71,263.32"/>
    </edge>
    <edge id=":1108139591_2" function="internal">
        <lane id=":1108139591_2_0" index="0" disallow="tram rail_urban rail rail_electric rail_fast ship container cable_car subway aircraft wheelchair scooter drone" speed="13.89" length="12.79" shape="809.79,275.75 810.82,272.01 811.86,269.56 813.15,267.20 814.94,263.72"/>
        <lane id=":1108139591_2_1" index="1" disallow="tram rail_urban rail rail_electric rail_fast ship container cable_car subway aircraft wheelchair scooter drone" speed="13.89" length="12.79" shape="812.91,276.46 813.89,272.93 814.89,270.61 816.13,268.38 817.83,265.10"/>
    </edge>
    <edge id=":1108139597_0" function="internal">
        <lane id=":1108139597_0_0" index="0" disallow="tram rail_urban rail rail_electric rail_fast ship container cable_car subway aircraft wheelchair scooter drone" speed="13.89" length="0.29" shape="887.02,215.10 886.76,214.96"/>
    </edge>
    <edge id=":11083851568_0" function="internal">
        <lane id=":11083851568_0_0" index="0" disallow="tram rail_urban rail rail_electric rail_fast ship container cable_car subway aircraft wheelchair scooter drone" speed="8.75" length="1.55" shape="849.03,196.95 847.90,195.90"/>
        <lane id=":11083851568_0_1" index="1" disallow="tram rail_urban rail rail_electric rail_fast ship container cable_car subway aircraft wheelchair scooter drone" speed="5.71" length="4.17" shape="847.61,199.82 844.65,196.88"/>
    </edge>
    <edge id=":11083851569_0" function="internal">
        <lane id=":11083851569_0_0" index="0" disallow="tram rail_urban rail rail_electric rail_fast ship container cable_car subway aircraft wheelchair scooter drone" speed="13.89" length="2.31" shape="854.31,196.41 853.25,198.59"/>
        <lane id=":11083851569_0_1" index="1" disallow="tram rail_urban rail rail_electric rail_fast ship container cable_car subway aircraft wheelchair scooter drone" speed="13.89" length="2.31" shape="852.90,199.51 852.00,201.53"/>
    </edge>
    <edge id=":11373959956_0" function="internal">
        <lane id=":11373959956_0_0" index="0" allow="pedestrian delivery bicycle" speed="3.65" length="4.67" shape="1398.26,1168.10 1396.92,1168.65 1396.04,1168.54 1395.60,1167.76 1395.60,1166.32"/>
    </edge>
    <edge id=":11688345155_0" function="internal">
        <lane id=":11688345155_0_0" index="0" allow="pedestrian delivery bicycle" speed="6.54" length="6.71" shape="1045.28,1008.99 1044.07,1008.55 1042.64,1008.66 1041.00,1009.33 1039.14,1010.54"/>
    </edge>
    <edge id=":11688345155_1" function="internal">
        <lane id=":11688345155_1_0" index="0" disallow="tram rail_urban rail rail_electric rail_fast ship container cable_car subway aircraft wheelchair scooter drone" speed="13.89" length="9.81" shape="1045.28,1008.99 1037.05,1003.65"/>
    </edge>
    <edge id=":11688345155_2" function="internal">
        <lane id=":11688345155_2_0" index="0" disallow="tram rail_urban rail rail_electric rail_fast ship container cable_car subway aircraft wheelchair scooter drone" speed="13.89" length="9.81" shape="1038.80,1000.96 1047.02,1006.31"/>
    </edge>
    <edge id=":11688345155_3" function="internal">
        <lane id=":11688345155_3_0" index="0" allow="pedestrian delivery bicycle" speed="6.68" length="3.72" shape="1038.80,1000.96 1041.44,1003.27 1041.52,1003.46"/>
    </edge>
    <edge id=":11688345155_7" function="internal">
        <lane id=":11688345155_7_0" index="0" allow="pedestrian delivery bicycle" speed="6.68" length="8.38" shape="1041.52,1003.46 1042.38,1005.63 1041.61,1008.06 1039.14,1010.54"/>
    </edge>
    <edge id=":11688345155_4" function="internal">
        <lane id=":11688345155_4_0" index="0" allow="pedestrian delivery bicycle" speed="4.75" length="5.48" shape="1037.21,1007.99 1038.33,1006.86 1038.68,1005.76 1038.25,1004.69 1037.05,1003.65"/>
    </edge>
    <edge id=":11688345155_5" function="internal">
        <lane id=":11688345155_5_0" index="0" allow="pedestrian delivery bicycle" speed="8.08" length="10.63" shape="1037.21,1007.99 1039.97,1006.26 1042.53,1005.40 1044.88,1005.42 1047.02,1006.31"/>
    </edge>
    <edge id=":11688345155_6" function="internal">
        <lane id=":11688345155_6_0" index="0" allow="pedestrian delivery bicycle" speed="3.65" length="4.67" shape="1037.21,1007.99 1038.65,1007.90 1039.45,1008.30 1039.61,1009.18 1039.14,1010.54"/>
    </edge>
    <edge id=":11688345158_0" function="internal">
        <lane id=":11688345158_0_0" index="0" allow="pedestrian delivery bicycle" speed="3.65" length="4.67" shape="1011.34,995.18 1012.78,995.08 1013.59,995.47 1013.76,996.35 1013.30,997.72"/>
    </edge>
    <edge id=":11831299334_0" function="internal">
        <lane id=":11831299334_0_0" index="0" disallow="tram rail_urban rail rail_electric rail_fast ship container cable_car subway aircraft wheelchair scooter drone" speed="12.22" length="6.46" shape="715.38,757.39 716.24,759.10 716.74,760.34 716.96,761.63 716.94,763.53"/>
    </edge>
    <edge id=":11831299334_1" function="internal">
        <lane id=":11831299334_1_0" index="0" disallow="tram rail_urban rail rail_electric rail_fast ship container cable_car subway aircraft wheelchair scooter drone" speed="10.62" length="4.83" shape="713.74,763.38 713.75,761.97 713.56,761.01 713.16,760.09 712.51,758.81"/>
    </edge>
    <edge id=":11831299335_0" function="internal">
        <lane id=":11831299335_0_0" index="0" disallow="tram rail_urban rail rail_electric rail_fast ship container cable_car subway aircraft wheelchair scooter drone" speed="22.22" length="5.00" shape="765.58,710.89 762.29,707.13"/>
    </edge>
    <edge id=":11831299335_1" function="internal">
        <lane id=":11831299335_1_0" index="0" disallow="tram rail_urban rail rail_electric rail_fast ship container cable_car subway aircraft wheelchair scooter drone" speed="22.22" length="4.99" shape="764.70,705.02 767.98,708.77"/>
    </edge>
    <edge id=":11870095543_0" function="internal">
        <lane id=":11870095543_0_0" index="0" allow="pedestrian delivery bicycle" speed="3.65" length="4.67" shape="908.81,707.34 908.77,708.78 908.30,709.55 907.41,709.63 906.09,709.04"/>
    </edge>
    <edge id=":11875073440_0" function="internal">
        <lane id=":11875073440_0_0" index="0" disallow="tram rail_urban rail rail_electric rail_fast ship container cable_car subway aircraft wheelchair scooter drone" speed="3.65" length="4.67" shape="1638.71,1032.08 1637.51,1032.87 1636.61,1032.92 1636.03,1032.24 1635.77,1030.82"/>
    </edge>
    <edge id=":11875073443_0" function="internal">
        <lane id=":11875073443_0_0" index="0" disallow="tram rail_urban rail rail_electric rail_fast ship container cable_car subway aircraft wheelchair scooter drone" speed="7.51" length="10.24" shape="1691.11,1004.65 1689.56,1002.77 1687.55,1001.70 1685.06,1001.44 1682.09,1002.00"/>
    </edge>
    <edge id=":11875073443_1" function="internal">
        <lane id=":11875073443_1_0" index="0" disallow="tram rail_urban rail rail_electric rail_fast ship container cable_car subway aircraft wheelchair scooter drone" speed="22.22" length="14.57" shape="1691.11,1004.65 1683.88,992.00"/>
    </edge>
    <edge id=":11875073443_2" function="internal">
        <lane id=":11875073443_2_0" index="0" disallow="tram rail_urban rail rail_electric rail_fast ship container cable_car subway aircraft wheelchair scooter drone" speed="3.65" length="1.44" shape="1691.11,1004.65 1691.21,1003.21"/>
    </edge>
    <edge id=":11875073443_9" function="internal">
        <lane id=":11875073443_9_0" index="0" disallow="tram rail_urban rail rail_electric rail_fast ship container cable_car subway aircraft wheelchair scooter drone" speed="3.65" length="3.23" shape="1691.21,1003.21 1691.70,1002.47 1692.60,1002.42 1693.89,1003.06"/>
    </edge>
    <edge id=":11875073443_3" function="internal">
        <lane id=":11875073443_3_0" index="0" disallow="tram rail_urban rail rail_electric rail_fast ship container cable_car subway aircraft wheelchair scooter drone" speed="22.22" length="14.57" shape="1686.66,990.41 1693.89,1003.06"/>
    </edge>
    <edge id=":11875073443_4" function="internal">
        <lane id=":11875073443_4_0" index="0" disallow="tram rail_urban rail rail_electric rail_fast ship container cable_car subway aircraft wheelchair scooter drone" speed="7.65" length="4.29" shape="1686.66,990.41 1688.24,994.40"/>
    </edge>
    <edge id=":11875073443_5" function="internal">
        <lane id=":11875073443_5_0" index="0" disallow="tram rail_urban rail rail_electric rail_fast ship container cable_car subway aircraft wheelchair scooter drone" speed="3.65" length="1.44" shape="1686.66,990.41 1686.56,991.85"/>
    </edge>
    <edge id=":11875073443_10" function="internal">
        <lane id=":11875073443_10_0" index="0" disallow="tram rail_urban rail rail_electric rail_fast ship container cable_car subway aircraft wheelchair scooter drone" speed="7.65" length="10.79" shape="1688.24,994.40 1688.01,997.66 1685.96,1000.20 1682.09,1002.00"/>
    </edge>
    <edge id=":11875073443_11" function="internal">
        <lane id=":11875073443_11_0" index="0" disallow="tram rail_urban rail rail_electric rail_fast ship container cable_car subway aircraft wheelchair scooter drone" speed="3.65" length="3.23" shape="1686.56,991.85 1686.07,992.60 1685.17,992.65 1683.88,992.00"/>
    </edge>
    <edge id=":11875073443_6" function="internal">
        <lane id=":11875073443_6_0" index="0" disallow="tram rail_urban rail rail_electric rail_fast ship container cable_car subway aircraft wheelchair scooter drone" speed="5.88" length="12.12" shape="1681.19,998.53 1684.47,999.36 1686.01,998.54 1685.82,996.09 1683.88,992.00"/>
    </edge>
    <edge id=":11875073443_7" function="internal">
        <lane id=":11875073443_7_0" index="0" disallow="tram rail_urban rail rail_electric rail_fast ship container cable_car subway aircraft wheelchair scooter drone" speed="13.76" length="13.88" shape="1681.19,998.53 1684.78,999.40 1688.35,999.86 1691.51,1000.78 1693.89,1003.06"/>
    </edge>
    <edge id=":11875073443_8" function="internal">
        <lane id=":11875073443_8_0" index="0" disallow="tram rail_urban rail rail_electric rail_fast ship container cable_car subway aircraft wheelchair scooter drone" speed="4.18" length="5.24" shape="1681.19,998.53 1682.71,999.06 1683.37,999.81 1683.17,1000.79 1682.09,1002.00"/>
    </edge>
    <edge id=":11914276564_0" function="internal">
        <lane id=":11914276564_0_0" index="0" disallow="tram rail_urban rail rail_electric rail_fast ship container cable_car subway aircraft wheelchair scooter drone" speed="13.89" length="0.10" shape="1836.43,746.54 1836.43,746.53"/>
        <lane id=":11914276564_0_1" index="1" disallow="tram rail_urban rail rail_electric rail_fast ship container cable_car subway aircraft wheelchair scooter drone" speed="13.89" length="0.10" shape="1839.46,745.52 1839.46,745.52"/>
    </edge>
    <edge id=":11914276564_2" function="internal">
        <lane id=":11914276564_2_0" index="0" disallow="tram rail_urban rail rail_electric rail_fast ship container cable_car subway aircraft wheelchair scooter drone" speed="13.89" length="0.10" shape="1845.53,743.49 1845.53,743.48"/>
        <lane id=":11914276564_2_1" index="1" disallow="tram rail_urban rail rail_electric rail_fast ship container cable_car subway aircraft wheelchair scooter drone" speed="13.89" length="0.10" shape="1842.50,744.50 1842.50,744.50"/>
    </edge>
    <edge id=":11914282177_0" function="internal">
        <lane id=":11914282177_0_0" index="0" allow="pedestrian delivery bicycle" speed="3.65" length="4.67" shape="817.55,1009.51 818.53,1008.45 819.38,1008.18 820.11,1008.70 820.71,1010.01"/>
    </edge>
    <edge id=":11914282178_0" function="internal">
        <lane id=":11914282178_0_0" index="0" allow="pedestrian delivery bicycle" speed="5.67" length="5.75" shape="743.93,925.28 742.24,924.76 740.82,924.73 739.66,925.19 738.76,926.15"/>
    </edge>
    <edge id=":11914282178_1" function="internal">
        <lane id=":11914282178_1_0" index="0" allow="pedestrian delivery bicycle" speed="6.74" length="11.04" shape="743.93,925.28 741.27,923.68 739.93,921.67 739.89,919.25 741.17,916.42"/>
    </edge>
    <edge id=":11914282178_2" function="internal">
        <lane id=":11914282178_2_0" index="0" allow="pedestrian delivery bicycle" speed="3.65" length="4.67" shape="743.93,925.28 743.14,924.08 743.08,923.18 743.76,922.60 745.17,922.33"/>
    </edge>
    <edge id=":11914282178_3" function="internal">
        <lane id=":11914282178_3_0" index="0" allow="pedestrian delivery bicycle" speed="4.88" length="5.22" shape="743.87,918.15 743.26,919.48 743.28,920.62 743.92,921.57 745.17,922.33"/>
    </edge>
    <edge id=":11914282178_4" function="internal">
        <lane id=":11914282178_4_0" index="0" disallow="tram rail_urban rail rail_electric rail_fast ship container cable_car subway aircraft wheelchair scooter drone" speed="13.89" length="9.49" shape="743.87,918.15 738.76,926.15"/>
    </edge>
    <edge id=":11914282178_5" function="internal">
        <lane id=":11914282178_5_0" index="0" disallow="tram rail_urban rail rail_electric rail_fast ship container cable_car subway aircraft wheelchair scooter drone" speed="13.89" length="9.50" shape="736.06,924.43 741.17,916.42"/>
    </edge>
    <edge id=":11914282178_6" function="internal">
        <lane id=":11914282178_6_0" index="0" allow="pedestrian delivery bicycle" speed="7.35" length="2.97" shape="736.06,924.43 737.75,922.54 738.15,922.36"/>
    </edge>
    <edge id=":11914282178_7" function="internal">
        <lane id=":11914282178_7_0" index="0" allow="pedestrian delivery bicycle" speed="7.35" length="7.32" shape="738.15,922.36 739.83,921.57 742.31,921.49 745.17,922.33"/>
    </edge>
    <edge id=":11920794957_0" function="internal">
        <lane id=":11920794957_0_0" index="0" disallow="tram rail_urban rail rail_electric rail_fast ship container cable_car subway aircraft wheelchair scooter drone" speed="13.89" length="6.00" shape="809.35,737.59 804.42,741.01"/>
    </edge>
    <edge id=":11920794957_1" function="internal">
        <lane id=":11920794957_1_0" index="0" allow="pedestrian delivery bicycle" speed="4.96" length="5.10" shape="803.32,733.88 804.17,735.01 805.17,735.56 806.31,735.53 807.58,734.92"/>
    </edge>
    <edge id=":11920794957_2" function="internal">
        <lane id=":11920794957_2_0" index="0" allow="pedestrian delivery bicycle" speed="6.35" length="7.71" shape="803.32,733.88 804.56,736.44 805.15,738.49 805.11,740.01 804.42,741.01"/>
    </edge>
    <edge id=":11920794957_3" function="internal">
        <lane id=":11920794957_3_0" index="0" disallow="tram rail_urban rail rail_electric rail_fast ship container cable_car subway aircraft wheelchair scooter drone" speed="13.89" length="6.15" shape="802.53,738.42 807.58,734.92"/>
    </edge>
    <edge id=":11920794962_0" function="internal">
        <lane id=":11920794962_0_0" index="0" allow="pedestrian delivery bicycle" speed="5.56" length="5.81" shape="737.39,658.95 738.77,658.49 739.87,659.05 741.07,659.85 742.74,660.10"/>
    </edge>
    <edge id=":11920794962_1" function="internal">
        <lane id=":11920794962_1_0" index="0" allow="pedestrian delivery bicycle" speed="3.65" length="4.67" shape="737.39,658.95 738.83,658.87 739.63,659.27 739.79,660.15 739.31,661.51"/>
    </edge>
    <edge id=":11920794963_0" function="internal">
        <lane id=":11920794963_0_0" index="0" disallow="tram rail_urban rail rail_electric rail_fast ship container cable_car subway aircraft wheelchair scooter drone" speed="22.22" length="9.42" shape="731.40,671.77 725.20,664.68"/>
    </edge>
    <edge id=":11920794963_1" function="internal">
        <lane id=":11920794963_1_0" index="0" allow="pedestrian delivery bicycle" speed="6.80" length="3.33" shape="731.40,671.77 729.81,669.32 729.75,668.91"/>
    </edge>
    <edge id=":11920794963_7" function="internal">
        <lane id=":11920794963_7_0" index="0" allow="pedestrian delivery bicycle" speed="6.80" length="7.20" shape="729.75,668.91 729.44,667.00 730.29,664.81 732.35,662.74"/>
    </edge>
    <edge id=":11920794963_2" function="internal">
        <lane id=":11920794963_2_0" index="0" allow="pedestrian delivery bicycle" speed="4.96" length="5.09" shape="734.27,665.30 733.27,666.30 732.86,667.36 733.04,668.48 733.81,669.66"/>
    </edge>
    <edge id=":11920794963_3" function="internal">
        <lane id=":11920794963_3_0" index="0" allow="pedestrian delivery bicycle" speed="7.06" length="10.19" shape="734.27,665.30 731.77,666.71 729.43,667.07 727.24,666.40 725.20,664.68"/>
    </edge>
    <edge id=":11920794963_4" function="internal">
        <lane id=":11920794963_4_0" index="0" allow="pedestrian delivery bicycle" speed="3.65" length="4.67" shape="734.27,665.30 732.83,665.38 732.03,664.98 731.87,664.10 732.35,662.74"/>
    </edge>
    <edge id=":11920794963_5" function="internal">
        <lane id=":11920794963_5_0" index="0" allow="pedestrian delivery bicycle" speed="5.30" length="5.31" shape="727.61,662.57 728.65,663.42 729.78,663.74 731.01,663.51 732.35,662.74"/>
    </edge>
    <edge id=":11920794963_6" function="internal">
        <lane id=":11920794963_6_0" index="0" disallow="tram rail_urban rail rail_electric rail_fast ship container cable_car subway aircraft wheelchair scooter drone" speed="22.22" length="9.42" shape="727.61,662.57 733.81,669.66"/>
    </edge>
    <edge id=":11927027540_0" function="internal">
        <lane id=":11927027540_0_0" index="0" disallow="tram rail_urban rail rail_electric rail_fast ship container cable_car subway aircraft wheelchair scooter drone" speed="3.65" length="4.67" shape="1737.68,932.82 1738.34,934.11 1738.30,935.00 1737.55,935.51 1736.12,935.62"/>
    </edge>
    <edge id=":11927028379_0" function="internal">
        <lane id=":11927028379_0_0" index="0" disallow="tram rail_urban rail rail_electric rail_fast ship container cable_car subway aircraft wheelchair scooter drone" speed="13.89" length="5.33" shape="1845.87,1025.83 1850.06,1029.13"/>
    </edge>
    <edge id=":11980983534_0" function="internal">
        <lane id=":11980983534_0_0" index="0" disallow="tram rail_urban rail rail_electric rail_fast ship container cable_car subway aircraft wheelchair scooter drone" speed="22.22" length="0.30" shape="464.17,574.43 464.41,574.61"/>
    </edge>
    <edge id=":11993750262_0" function="internal">
        <lane id=":11993750262_0_0" index="0" allow="pedestrian delivery bicycle" speed="5.56" length="8.04" shape="1152.79,968.42 1154.62,969.91 1155.67,971.20 1156.71,972.48 1158.55,973.97"/>
    </edge>
    <edge id=":11993750262_1" function="internal">
        <lane id=":11993750262_1_0" index="0" allow="pedestrian delivery bicycle" speed="5.56" length="8.03" shape="1151.03,971.29 1153.27,972.09 1154.90,972.42 1156.48,972.85 1158.55,973.97"/>
    </edge>
    <edge id=":11993750268_0" function="internal">
        <lane id=":11993750268_0_0" index="0" allow="pedestrian delivery bicycle" speed="5.56" length="8.14" shape="1161.50,975.93 1168.08,980.72"/>
    </edge>
    <edge id=":11993750268_1" function="internal">
        <lane id=":11993750268_1_0" index="0" allow="pedestrian delivery bicycle" speed="5.56" length="8.31" shape="1160.36,979.87 1162.18,979.07 1164.07,978.95 1166.04,979.50 1168.08,980.72"/>
    </edge>
    <edge id=":1202330482_0" function="internal">
        <lane id=":1202330482_0_0" index="0" disallow="tram rail_urban rail rail_electric rail_fast ship container cable_car subway aircraft wheelchair scooter drone" speed="6.45" length="9.03" shape="1750.03,500.72 1747.65,500.00 1745.63,500.22 1743.97,501.39 1742.66,503.50"/>
    </edge>
    <edge id=":1202330482_1" function="internal">
        <lane id=":1202330482_1_0" index="0" disallow="tram rail_urban rail rail_electric rail_fast ship container cable_car subway aircraft wheelchair scooter drone" speed="13.89" length="11.26" shape="1750.03,500.72 1739.81,495.98"/>
    </edge>
    <edge id=":1202330482_2" function="internal">
        <lane id=":1202330482_2_0" index="0" disallow="tram rail_urban rail rail_electric rail_fast ship container cable_car subway aircraft wheelchair scooter drone" speed="13.89" length="11.26" shape="1747.20,493.19 1742.66,503.50"/>
    </edge>
    <edge id=":1202330482_3" function="internal">
        <lane id=":1202330482_3_0" index="0" disallow="tram rail_urban rail rail_electric rail_fast ship container cable_car subway aircraft wheelchair scooter drone" speed="6.48" length="4.15" shape="1747.20,493.19 1745.88,495.29 1744.52,496.25"/>
    </edge>
    <edge id=":1202330482_4" function="internal">
        <lane id=":1202330482_4_0" index="0" disallow="tram rail_urban rail rail_electric rail_fast ship container cable_car subway aircraft wheelchair scooter drone" speed="6.48" length="4.89" shape="1744.52,496.25 1744.21,496.46 1742.19,496.69 1739.81,495.98"/>
    </edge>
    <edge id=":1202330526_0" function="internal">