<?xml version="1.0" encoding="UTF-8"?>

<!-- generated on 2025-03-14 09:12:23.117738 by randomTrips.py UNKNOWN
<configuration>
    <net-file value="map.net.xml"/>
    <output-trip-file value="trips.xml"/>
    <route-file value="routes.rou.xml"/>
    <end value="600.0"/>
    <period value="10.0"/>
</configuration>
-->

<!-- generated on 2025-03-14 09:12:23 by Eclipse SUMO duarouter Version 1.22.0
<duarouterConfiguration xmlns:xsi="http://www.w3.org/2001/XMLSchema-instance" xsi:noNamespaceSchemaLocation="http://sumo.dlr.de/xsd/duarouterConfiguration.xsd">

    <input>
        <net-file value="map.net.xml"/>
        <route-files value="trips.xml"/>
    </input>

    <output>
        <output-file value="routes.rou.xml"/>
        <alternatives-output value="NUL"/>
    </output>

    <time>
        <begin value="0"/>
        <end value="600.0"/>
    </time>

    <report>
        <no-warnings value="true"/>
        <ignore-errors value="true"/>
        <no-step-log value="true"/>
    </report>

</duarouterConfiguration>
-->

<routes xmlns:xsi="http://www.w3.org/2001/XMLSchema-instance" xsi:noNamespaceSchemaLocation="http://sumo.dlr.de/xsd/routes_file.xsd">
    <vehicle id="0" depart="0.00">
        <route edges="157520966#5 1067232682 1067232683 1067232686 1117159562#0 1117159562#1 1067232684 1117159561 604826209 604826208 41779467 608022305 521369417 521369419 186466799 20899781 1118885065 1118885066 1118885067 1118885068 24267161 24267164 1118930501 41779480 1118885077 186466821 521377147 521377146#0 521377146#1 1117129344 521377144 -1117129353 -211816964 -1117129354"/>
    </vehicle>
    <vehicle id="1" depart="10.00">
        <route edges="104203865#0 104203840#1 104203840#2 135001586#1 1286127333 104203828 520907937 25329248 1066387386 1066387389 -135000604#1 -135000604#0 -1066387382#1 -1066387382#0 -1066387381 -32501217 -32501230 116139660 1118881988 525352730 40284971 1118881989 40284969#0 40284969#1 521314286 521314287 303127259 -521379053 -1118941477 -331974165 -1118885056 -1118930502 -211570877 -521369420#3 -521369420#2 -521369420#1"/>
    </vehicle>
    <vehicle id="2" depart="20.00">
        <route edges="303127209 116139663 1118885048#0 -1118885048#3 310206045 1118885084 134394992 303127243 1118885081 303127265 41779467 608022305 521369417 521369419 186466799 20899781"/>
    </vehicle>
    <vehicle id="3" depart="30.00">
        <route edges="41779487 1118885064 303409710 1118885063 1118885062 41779488#0 41779488#1 41779488#2 41779488#3 41779488#4 116183616 -1118885069 -1118885068 -1118885067 -1118885066"/>
    </vehicle>
    <vehicle id="4" depart="40.00">
        <route edges="1118885058 339161593 116139663 1118885048#0 -1118885048#3 -1118885048#2 -1118885048#1"/>
    </vehicle>
    <vehicle id="5" depart="50.00">
        <route edges="-331974165 211571121 1118930503#0 1118930503#1 1118885057 1118885059 1118885058 339161597 339161587#0 339161587#1 339161587#2 303127258 32501230 32501217 1066387381 1066387382#0 1066387382#1 135000604#0 135000604#1 520907938 1066387385 24267063#0 1120528319 32501129#0 1117137495 41779526 41779527 1300091458 1300091459 104203840#2 1268830905#0 1268830905#1 1268830905#2"/>
    </vehicle>
    <vehicle id="6" depart="60.00">
        <route edges="-1117129354 211816963#0 211816963#1 1110251954#0 1110251954#1 1067179857 1067179856#0 1067179856#1 1067232683 1067232686 1117159562#0 1117159562#1 1067232684 1117159561 604826209 604826208 41779467 608022305 27610322 521369420#0 521369420#1 521369420#2 521369420#3 211570877 1118930502 40284974 1118930503#0 1118930503#1 1118885057 1118885059 1118885058 339161597 339161587#0 339161587#1 339161587#2 303127258 32501230 32501217 1066387381 -1066387381 -32501217"/>
    </vehicle>
    <vehicle id="7" depart="70.00">
        <route edges="186466810#0 -186466816 41779488#4 116183616 -1118885069 -1118885068 -1118885067 -1118885066 -1118885065 -20899781 186466797 521369416#0 303409700 27610322 521369420#0 521369420#1 521369420#2 521369420#3 211570877 1118930502 40284974 1118930503#0 1118930503#1 1118885057 1118885059 1118885058 339161597 339161587#0 339161587#1 339161587#2 303127258 32501230 32501217 1066387381 1066387382#0 1066387382#1 135000604#0 135000604#1 520907938 1066387385 24267063#0 1120528319 32501129#0 1117137495 41779526 41779527 1300091458"/>
    </vehicle>
    <vehicle id="9" depart="90.00">
        <route edges="32501204 211743270#0 211743270#1 1118885050#0 -1118885050#0 -211743270#1 -211743270#0 211743271 40284971 -116139659 116139658 339161593 303127226 339161587#0 339161587#1 339161587#2 303127258 32501230 32501217 1066387381 1066387382#0 1066387382#1 135000604#0 135000604#1 520907938 1066387385 24267063#0 1120528319 32501129#0 32501129#1 104203815 135000899 520907937 25329248 1066387386 1066387389 -135000604#1 -135000604#0 -1066387382#1"/>
    </vehicle>
    <vehicle id="10" depart="100.00">
        <route edges="32501101#0 32501101#1 1300216430#0 1300216430#1 104203815 135000899 520907937 25329248 1066387386 1066387389 -135000604#1 -135000604#0 -1066387382#1 -1066387382#0 -1066387381 -32501217 -32501230 116139660 1118881988 525352730 40284971 1118881989 40284969#0 40284969#1 521314286 521314287 303127259 -521379053 -1118941477 -331974165 -1118885056 -1118930502 -211570877 -521369420#3 -521369420#2 -521369420#1 -521369420#0 116139661 521369419 186466799 20899781 1118885065 1118885066 1118885067 1118885068 24267161 24267164 1118930501 41779480 1118885077 186466821 521377147 521377146#0 521377146#1 1117129344 521377144 -1117129353 -211816964 -1117129354 211816963#0 211816963#1"/>
    </vehicle>
    <vehicle id="12" depart="120.00">
        <route edges="521369420#0 521369420#1 521369420#2 521369420#3 211570877 -1118885049#1 -1118885049#0 -134395343 134395343 1118885049#0 1118885049#1 -211570877 -521369420#3 -521369420#2 -521369420#1 -521369420#0 116139661 521369419 521369418 521369416#0 521369416#1 303409704#0 303409704#1 303409704#2 303409704#3 1069904722 521369415 521369414 116726097#0 116726097#1 -1110251953 1110251954#0"/>
    </vehicle>
    <vehicle id="14" depart="140.00">
        <route edges="339161590 116139658 339161593 303127226 339161587#0 339161587#1 339161587#2 303127258 32501230 32501217 1066387381 1066387382#0 1066387382#1 135000604#0"/>
    </vehicle>
    <vehicle id="15" depart="150.00">
        <route edges="32501101#1 1300216430#0 1300216430#1 104203815 135000899 520907937 25329248 1066387386 1066387389 -135000604#1 -135000604#0 -1066387382#1 -1066387382#0 -1066387381 -32501217 -32501230 116139660 1118881988 525352730 40284971 1118881989 40284969#0 40284969#1 521314286 521314287 303127259 -521379053 -1118941477 -331974165 -1118885056 -1118930502 -211570877 -521369420#3 -521369420#2 -521369420#1 -521369420#0 116139661 521369419 521369418 521369416#0 303409700 27610322"/>
    </vehicle>
    <vehicle id="16" depart="160.00">
        <route edges="1284989474#1 1284989474#2 41779479#0 41779479#1 41779479#2 -41779487 -20899781 186466797 521369416#0 303409700 27610322 521369420#0 521369420#1 521369420#2 521369420#3 211570877 1118930502 40284974 1118930503#0 1118930503#1 1118885057 1118885059 1118885058 339161597 339161587#0 339161587#1 339161587#2 211743272 1118881988 32501204 211743270#0 211743270#1 1118885050#0 1118885050#1 1118885050#2 1118885050#3 1118885050#4 1327492859#0 1327492859#1 525724234"/>
    </vehicle>
    <vehicle id="17" depart="170.00">
        <route edges="1118885048#2 1118885048#3 -1118885048#0 -116139663 303127226 339161587#0 339161587#1 339161587#2 303127258 32501230 32501217 1066387381 1066387382#0 1066387382#1 135000604#0 135000604#1 520907938 1066387385 24267063#0 1120528319 32501129#0 1117137495 41779526 1300216430#0"/>
    </vehicle>
    <vehicle id="18" depart="180.00">
        <route edges="32501264#0 32501264#1 32501227 -32501217 -32501230 116139660 1118881988 525352730 40284971 1118881989 40284969#0 40284969#1 521314286 521314287 303127259 -521379053 -1118941477 -331974165 -1118885056 -1118930502 -211570877 -521369420#3 -521369420#2 -521369420#1 -521369420#0 116139661 521369419 186466799 20899781 1118885065 1118885066 1118885067 1118885068 24267161 24267164 1118930501 41779480 1118885077 186466821 521377147 521377146#0 521377146#1 24267029 135530867#0 135530867#1"/>
    </vehicle>
    <vehicle id="20" depart="200.00">
        <route edges="211816963#1 1110251954#0 1110251954#1 1067179857 1067179856#0 1067179856#1 1067232683 1067232686 1117159562#0 1117159562#1 1067232684 1117159561 604826209 604826208 41779467 608022305 27610322 521369420#0 521369420#1 521369420#2 521369420#3 211570877 1118930502 40284974 1118930503#0 1118930503#1 1118885057 1118885059 1118885058 339161597 339161587#0 339161587#1 339161587#2 211743272 1118881988 32501204 211743270#0 211743270#1 1118885050#0 1118885050#1 1118885050#2 1118885050#3 1118885050#4 -1118885050#4 -1118885050#3 -1118885050#2 -1118885050#1"/>
    </vehicle>
    <vehicle id="21" depart="210.00">
        <route edges="-465648457#1 317357529 -1278635384#2 -1278635384#1 -1278635384#0 -1118885061 -1118885062 -1118885063 -303409710 -1118885064 -41779487 -20899781 186466797 521369416#0 521369416#1 303409704#0 303409704#1 303409704#2 303409704#3 1069904722 521369415 525352728 1067179857 1067179856#0 1067179856#1"/>
    </vehicle>
    <vehicle id="22" depart="220.00">
        <route edges="-1118885063 -303409710 -1118885064 -41779487 -20899781 186466797 521369416#0 303409700 27610322 521369420#0 521369420#1 521369420#2 521369420#3 211570877 1118930502 40284974 1118930503#0 1118930503#1 1118885057 1118885059 1118885058 339161597 339161587#0 339161587#1 339161587#2 211743272 1118881988 32501204 211743270#0 211743270#1 1118885050#0 1118885050#1 1118885050#2 1118885050#3 1118885050#4 77616032 130705757 1118885055#0 -1118885055#0 -130705757 -77616032"/>
    </vehicle>
    <vehicle id="23" depart="230.00">
        <route edges="-1118885070#1 -1118885070#0 -1118885069 -1118885068 -1118885067 -1118885066 -1118885065 -20899781 186466797 521369416#0 303409700 27610322 521369420#0 521369420#1 521369420#2 521369420#3 211570877 1118930502 40284974 1118930503#0 1118930503#1 1118885057 1118885059 1118885058 339161597 339161587#0 339161587#1 339161587#2 303127258 32501230 32501217 1066387381 1066387382#0"/>
    </vehicle>
    <vehicle id="24" depart="240.00">
        <route edges="157520966#4 157520966#5 1067232682 1067232683 1067232686 1117159562#0 1117159562#1 1067232684 1117159561 604826209 604826208 41779467 608022305 27610322 521369420#0 521369420#1 521369420#2 521369420#3 211570877 1118930502 40284974 1118930503#0 1118930503#1 1118885057 1118885059 1118885058 339161593 116139663 1118885048#0"/>
    </vehicle>
    <vehicle id="25" depart="250.00">
        <route edges="1118881989 40284969#0 40284969#1 521314286 521314287 303127259 -521379053 -1118941477 -331974165 -1118885056 -1118930502 -211570877 -521369420#3 -521369420#2 -521369420#1 -521369420#0 116139661 521369419 186466799 20899781 41779487 1118885064 303409710 41779489#0 186466818 186466820#1 -1118885064 -41779487"/>
    </vehicle>
    <vehicle id="26" depart="260.00">
        <route edges="104203840#0 104203840#1 104203840#2 135001586#1 1286127333 104203828 520907937 25329248 1066387386 1066387389 -135000604#1 -135000604#0 -1066387382#1 -1066387382#0 -1066387381 -32501217 -32501230 116139660 1118881988 525352730 40284971 1118881989 40284969#0 40284969#1 521314286 521314287 303127259 -521379053 -1118941477 -331974165 -1118885056 -1118930502 -211570877 -521369420#3 -521369420#2 -521369420#1 -521369420#0 116139661 521369419 186466799 20899781 41779487 1118885064 303409710 1118885063 1118885062 1118885061 1278635384#0 1278635384#1 1278635384#2 -317357529 465648457#1"/>
    </vehicle>
    <vehicle id="27" depart="270.00">
        <route edges="186466799 20899781 41779484 -41779484 -20899781 186466797 521369416#0 303409700 27610322 521369420#0 521369420#1 521369420#2 521369420#3 211570877 1118930502 40284974 1118930503#0 1118930503#1 1118885057 1118885059 1118885058 339161597 339161587#0 339161587#1 339161587#2 211743272 1118881988 32501204 211743270#0 211743270#1 1118885050#0 1118885050#1 1118885050#2 1118885050#3 1118885050#4 77616032 130705757 1118885055#0 1118885055#1 1118885054 1284263939 1118885053#0 1118885053#1 135001583"/>
    </vehicle>
    <vehicle id="28" depart="280.00">
        <route edges="-182091454 182091472 303409705#0 303409705#1 303409705#2 521314287 303127259 -521379053 -1118941477 -331974165 -1118885056 -1118930502 -211570877 -521369420#3 -521369420#2 -521369420#1 -521369420#0 116139661 521369419 521369418 521369416#0 303409700 27610322"/>
    </vehicle>
    <vehicle id="29" depart="290.00">
        <route edges="-135000604#0 -1066387382#1 -1066387382#0 -1066387381 -32501217 -32501230 116139660 1118881988 32501204 211743270#0 211743270#1 1118885050#0"/>
    </vehicle>
    <vehicle id="30" depart="300.00">
        <route edges="608022305 521369417 521369419 186466799 20899781 41779484 -41779484 -20899781 186466797"/>
    </vehicle>
    <vehicle id="31" depart="310.00">
        <route edges="130705757 1118885055#0 -1118885055#0 -130705757 -77616032 -1118885050#4 -1118885050#3 -1118885050#2 -1118885050#1 -1118885050#0 -211743270#1 -211743270#0 211743271 40284971 1118881989 40284969#0 40284969#1 521314286 521314287 303127259 -521379053 -1118941477 -331974165 211571121"/>
    </vehicle>
    <vehicle id="32" depart="320.00">
        <route edges="339161587#1 339161587#2 211743272 1118881988 525352730 40284971 1118881989 40284969#0 40284969#1 521314286 521314287 303127259 -521379053 -1118941477 -331974165 -1118885056 -1118930502 -211570877 -521369420#3 -521369420#2 -521369420#1 -521369420#0 116139661 521369419 521369418 521369416#0 521369416#1 303409704#0"/>
    </vehicle>
    <vehicle id="33" depart="330.00">
        <route edges="-465648457#1 317357529 -1278635384#2 -1278635384#1 -1278635384#0 -1118885061 -1118885062 -1118885063 -303409710 -1118885064 -41779487 -20899781 186466797 521369416#0 303409700 27610322 521369420#0 521369420#1 521369420#2 521369420#3 211570877 1118930502 40284974 1118930503#0 1118930503#1 1118885057 1118885059 1118885058 339161593 116139663 1118885048#0 -1118885048#3 -1118885048#2"/>
    </vehicle>
    <vehicle id="35" depart="350.00">
        <route edges="-317363128 -130705757 -77616032 -1118885050#4 -1118885050#3 -1118885050#2 -1118885050#1 -1118885050#0 -211743270#1 -211743270#0 211743271 40284971 1118881989 40284969#0 40284969#1 521314286 521314287 303127259 -521379053 -1118941477 -331974165 -1118885056 -1118930502 -211570877 -521369420#3 -521369420#2 -521369420#1 -521369420#0 116139661 521369419 521369418 521369416#0 521369416#1 303409704#0 303409704#1 303409704#2 303409704#3 1069904722 521369415 521369414"/>
    </vehicle>
    <vehicle id="36" depart="360.00">
        <route edges="41779474 24267056#1 24267056#2 1117159562#0 1117159562#1 1067232684 1117159561 604826209 604826208 41779467 608022305 27610322 521369420#0 521369420#1 521369420#2 521369420#3 211570877 1118930502 40284974 1118930503#0 1118930503#1 1118885057 1118885059 1118885058 339161597 339161587#0 339161587#1 339161587#2 211743272 1118881988 32501204 211743270#0 211743270#1 1118885050#0 1118885050#1 1118885050#2 1118885050#3 1118885050#4 77616032 130705757 1118885055#0 1118885055#1 1118885054 1284263939 1118885053#0 1118885053#1 135001583 1118885052#0 1074443706#0"/>
    </vehicle>
    <vehicle id="37" depart="370.00">
        <route edges="186466810#2 186466810#3 186466810#4 -1118885063 -303409710 -1118885064 -41779487 -20899781 186466797 521369416#0 303409700 27610322 521369420#0 521369420#1 521369420#2 521369420#3 211570877 1118930502 40284974 1118930503#0 1118930503#1 1118885057 1118885059 1118885058 339161597 339161587#0 339161587#1 339161587#2 211743272 1118881988 32501204 211743270#0 211743270#1 1118885050#0 1118885050#1 1118885050#2 1118885050#3 1118885050#4 77616032 130705757 1118885055#0 1118885055#1 1118885054 1284263939 1118885053#0 1118885053#1 135001583 1118885052#0 1118885052#1 1118885052#2"/>
    </vehicle>
    <vehicle id="38" depart="380.00">
        <route edges="41779510 1118885068 24267161 24267164 41779482 1118930500#1 1118930500#2"/>
    </vehicle>
    <vehicle id="39" depart="390.00">
        <route edges="104203837#3 32501228#0 32501228#1 32501228#2 32501228#3 1066387382#0 1066387382#1 135000604#0 135000604#1 520907938 1066387385 24267063#0 1120528319 32501129#0 1117137495 41779526 41779527 1300091458 1300091459 104203835#0"/>
    </vehicle>
    <vehicle id="41" depart="410.00">
        <route edges="134122781#4 134122781#5 134122781#6 134122781#7 134111722#2 134111722#3 32501264#0 32501264#1 32501227 -32501217 -32501230 116139660 1118881988 525352730 40284971 1118881989 40284969#0 40284969#1 521314286 521314287 303127259 -521379053 -1118941477 -331974165 -1118885056 -1118930502 -211570877 -521369420#3 -521369420#2 -521369420#1 -521369420#0 116139661 521369419 186466799 20899781 41779487 1118885064 303409710 1118885063 1118885062 41779488#0 41779488#1 41779488#2"/>
    </vehicle>
    <vehicle id="42" depart="420.00">
        <route edges="1118885052#0 -1118885052#0 -135001583 -1118885053#1 -1118885053#0 -1284263939 -1118885054 -1118885055#1 -1118885055#0 -130705757 -77616032 -1118885050#4 -1118885050#3 -1118885050#2 -1118885050#1 -1118885050#0 -211743270#1 -211743270#0 211743271 40284971 1118881989 40284969#0 40284969#1 521314286 521314287 303127259 -521379053 -1118941477 -331974165 -1118885056 -1118930502 -211570877 -521369420#3 -521369420#2 -521369420#1 -521369420#0 116139661 521369419 186466799 20899781 41779487 1118885064 303409710 1118885063 1118885062 1118885061 1278635384#0 1278635384#1 1278635384#2 -317357529 465648457#1 130673502 -130673502 -465648457#1"/>
    </vehicle>
    <vehicle id="44" depart="440.00">
        <route edges="-1118885067 -1118885066 -1118885065 -20899781 186466797 521369416#0 303409700 27610322 521369420#0 521369420#1 521369420#2 521369420#3 211570877 1118930502 40284974 1118930503#0 1118930503#1 1118885057 1118885059 1118885058 339161597 339161587#0 339161587#1 339161587#2 211743272 1118881988 32501204 211743270#0 211743270#1 1118885050#0 1118885050#1 1118885050#2 1118885050#3 1118885050#4 -1118885050#4 -1118885050#3 -1118885050#2"/>
    </vehicle>
    <vehicle id="46" depart="460.00">
        <route edges="303409705#1 303409705#2 521314287 303127259 -521379053 -1118941477 -331974165 -1118885056 -1118930502 -211570877 -521369420#3 -521369420#2 -521369420#1 -521369420#0 116139661 521369419 186466799 20899781 41779487 1118885064 303409710 1118885063 1118885062"/>
    </vehicle>
    <vehicle id="47" depart="470.00">
        <route edges="-1118885053#1 -1118885053#0 -1284263939 -1118885054 -1118885055#1 -1118885055#0 -130705757 -77616032 -1118885050#4 -1118885050#3 -1118885050#2 -1118885050#1 1118885050#1"/>
    </vehicle>
    <vehicle id="49" depart="490.00">
        <route edges="525352728 1067179857 1067179856#0 1067179856#1 1067232683 1067232686 1117159562#0 1117159562#1 1067232684 1117159561 604826209 604826208 41779467 608022305 521369417 521369419 521369418 521369416#0 521369416#1 41779469"/>
    </vehicle>
    <vehicle id="50" depart="500.00">
        <route edges="-1066387394#1 104203840#0 104203840#1 104203840#2 135001586#1 1286127333 104203828 520907937 25329248 1066387386 1066387389 -135000604#1 -135000604#0 -1066387382#1 -1066387382#0 -1066387381 -32501217 -32501230 116139660 1118881988 525352730 40284971 1118881989 40284969#0 40284969#1 521314286 521314287 303127259 -521379053 -1118941477 -331974165 -1118885056 -1118930502 -211570877 -521369420#3 -521369420#2 -521369420#1 -521369420#0 116139661 521369419 186466799 20899781 1118885065 1118885066 1118885067 1118885068 24267161 24267164"/>
    </vehicle>
    <vehicle id="51" depart="510.00">
        <route edges="20899781 41779487 1118885064 303409710 41779489#0 41779489#1 1284989474#2"/>
    </vehicle>
    <vehicle id="52" depart="520.00">
        <route edges="104203840#0 104203840#1 104203840#2 135001586#1 1286127333 104203828 520907937 25329248 1066387386 1066387389 -135000604#1 -135000604#0 -1066387382#1 -1066387382#0 -1066387381 -32501217 -32501230 116139660 1118881988 525352730 40284971 1118881989 40284969#0 40284969#1 521314286 521314287 303127259 -521379053 -1118941477 -331974165 -1118885056 -1118930502 -211570877 -521369420#3 -521369420#2 -521369420#1 -521369420#0 116139661 521369419 186466799 20899781 41779484 -41779484 -20899781 186466797"/>
    </vehicle>
    <vehicle id="53" depart="530.00">
        <route edges="-116139659 116139658 339161593 116139663 1118885048#0 -1118885048#3 310206045 1118885084 134394992 303127243 1118885081 303127265 41779467 608022305 521369417 521369419 186466799 20899781 1118885065 1118885066 1118885067"/>
    </vehicle>
    <vehicle id="54" depart="540.00">
        <route edges="1118885081 303127265 41779467 608022305 27610322 521369420#0 521369420#1"/>
    </vehicle>
    <vehicle id="56" depart="560.00">
        <route edges="124811167#1 104205227#0 32501354 134111722#3 32501264#0 32501264#1 32501227 -32501217 -32501230 116139660 1118881988 32501204 211743270#0 211743270#1 1118885050#0 -1118885050#0 -211743270#1"/>
    </vehicle>
    <vehicle id="57" depart="570.00">
        <route edges="41779508 -1118885066 -1118885065 -20899781 186466797 521369416#0 303409700 27610322 521369420#0 521369420#1 521369420#2 521369420#3 211570877 1118930502 40284974 1118930503#0 1118930503#1 1118885057 1118885059 1118885058 339161597 339161587#0 339161587#1 339161587#2 303127258 32501230 303407190 41779466 608022304 41779473#0 41779474"/>
    </vehicle>
    <vehicle id="58" depart="580.00">
        <route edges="1067179857 1067179856#0 1067179856#1 1067232683 1067232686 1117159562#0 1117159562#1 1067232684 1117159561 604826209 604826208 41779467 608022305 27610322 521369420#0 521369420#1 521369420#2 521369420#3 211570877 1118930502 1118885056 331974165 1118941477 521379053 303127215 521314288 40284969#0 40284969#1 27610328 1084050725 1084050726#0 1084050726#1 1084050726#2 182091454 -182091454 182091472"/>
    </vehicle>
    <vehicle id="59" depart="590.00">
        <route edges="135000604#0 135000604#1 520907938 1066387385 24267063#0 1120528319 32501129#0 32501129#1 104203815 135000899 520907937 25329248 1066387386 1066387389 -135000604#1"/>
    </vehicle>
</routes>
